# File generated by Flopy version 3.11.0.dev0 on 05/24/2026 at 17:48:51.
BEGIN options
  SAVE_FLOWS
  NEWTON  UNDER_RELAXATION
END options

BEGIN packages
  dis6  gwf.dis  dis
  ic6  gwf.ic  ic
  npf6  gwf.npf  npf
  sto6  gwf.sto  sto
  rch6  gwf.rch  rch_original
  drn6  gwf_riv.drn  river
  drn6  gwf_gwd.drn  gwd
  oc6  gwf.oc  oc
END packages

