# File generated by Flopy version 3.11.0.dev0 on 05/24/2026 at 17:48:51.
BEGIN options
  PRINT_OPTION  summary
  COMPLEXITY  simple
END options

BEGIN nonlinear
  OUTER_DVCLOSE  1.00000000E-04
  OUTER_MAXIMUM  1000
END nonlinear

BEGIN linear
  INNER_MAXIMUM  100
  INNER_DVCLOSE  1.00000000E-05
  LINEAR_ACCELERATION  bicgstab
END linear

