# File generated by Flopy version 3.11.0.dev0 on 05/24/2026 at 17:48:51.
BEGIN options
  READASARRAYS
  auxiliary  concentration
END options

BEGIN period  1
  recharge
    INTERNAL  FACTOR  1.0
    9.50000000E-06  9.50000000E-06  9.50000000E-06  9.50000000E-06  9.50000000E-06  9.50000000E-06  9.50000000E-06  9.50000000E-06  9.50000000E-06  9.50000000E-06  9.50000000E-06  9.50000000E-06  9.50000000E-06  9.50000000E-06  9.50000000E-06  9.50000000E-06  9.50000000E-06  9.50000000E-06  9.50000000E-06  9.50000000E-06  9.50000000E-06  9.50000000E-06  9.50000000E-06  9.50000000E-06  9.50000000E-06  9.50000000E-06  9.50000000E-06  9.50000000E-06  9.50000000E-06  9.50000000E-06  9.50000000E-06  9.50000000E-06  9.50000000E-06  9.50000000E-06  9.50000000E-06  9.50000000E-06  9.50000000E-06  9.50000000E-06  9.50000000E-06  9.50000000E-06  9.50000000E-06  9.50000000E-06  9.50000000E-06  9.50000000E-06  9.50000000E-06  9.50000000E-06  9.50000000E-06  9.50000000E-06  9.50000000E-06  9.50000000E-06  9.50000000E-06  9.50000000E-06  9.50000000E-06  9.50000000E-06  9.50000000E-06  9.50000000E-06  9.50000000E-06  9.50000000E-06  9.50000000E-06  9.50000000E-06  9.50000000E-06  9.50000000E-06  9.50000000E-06  9.50000000E-06  9.50000000E-06  9.50000000E-06  9.50000000E-06  9.50000000E-06  9.50000000E-06  9.50000000E-06  9.50000000E-06  9.50000000E-06  9.50000000E-06
    9.50000000E-06  9.50000000E-06  9.50000000E-06  9.50000000E-06  9.50000000E-06  9.50000000E-06  9.50000000E-06  9.50000000E-06  9.50000000E-06  9.50000000E-06  9.50000000E-06  9.50000000E-06  9.50000000E-06  9.50000000E-06  9.50000000E-06  9.50000000E-06  9.50000000E-06  9.50000000E-06  9.50000000E-06  9.50000000E-06  9.50000000E-06  9.50000000E-06  9.50000000E-06  9.50000000E-06  9.50000000E-06  9.50000000E-06  9.50000000E-06  9.50000000E-06  9.50000000E-06  9.50000000E-06  9.50000000E-06  9.50000000E-06  9.50000000E-06  9.50000000E-06  9.50000000E-06  9.50000000E-06  9.50000000E-06  9.50000000E-06  9.50000000E-06  9.50000000E-06  9.50000000E-06  9.50000000E-06  9.50000000E-06  9.50000000E-06  9.50000000E-06  9.50000000E-06  9.50000000E-06  9.50000000E-06  9.50000000E-06  9.50000000E-06  9.50000000E-06  9.50000000E-06  9.50000000E-06  9.50000000E-06  9.50000000E-06  9.50000000E-06  9.50000000E-06  9.50000000E-06  9.50000000E-06  9.50000000E-06  9.50000000E-06  9.50000000E-06  9.50000000E-06  9.50000000E-06  9.50000000E-06  9.50000000E-06  9.50000000E-06  9.50000000E-06  9.50000000E-06  9.50000000E-06  9.50000000E-06  9.50000000E-06  9.50000000E-06
    9.50000000E-06  9.50000000E-06  9.50000000E-06  9.50000000E-06  9.50000000E-06  9.50000000E-06  9.50000000E-06  9.50000000E-06  9.50000000E-06  9.50000000E-06  9.50000000E-06  9.50000000E-06  9.50000000E-06  9.50000000E-06  9.50000000E-06  9.50000000E-06  9.50000000E-06  9.50000000E-06  9.50000000E-06  9.50000000E-06  9.50000000E-06  9.50000000E-06  9.50000000E-06  9.50000000E-06  9.50000000E-06  9.50000000E-06  9.50000000E-06  9.50000000E-06  9.50000000E-06  9.50000000E-06  9.50000000E-06  9.50000000E-06  9.50000000E-06  9.50000000E-06  9.50000000E-06  9.50000000E-06  9.50000000E-06  9.50000000E-06  9.50000000E-06  9.50000000E-06  9.50000000E-06  9.50000000E-06  9.50000000E-06  9.50000000E-06  9.50000000E-06  9.50000000E-06  9.50000000E-06  9.50000000E-06  9.50000000E-06  9.50000000E-06  9.50000000E-06  9.50000000E-06  9.50000000E-06  9.50000000E-06  9.50000000E-06  9.50000000E-06  9.50000000E-06  9.50000000E-06  9.50000000E-06  9.50000000E-06  9.50000000E-06  9.50000000E-06  9.50000000E-06  9.50000000E-06  9.50000000E-06  9.50000000E-06  9.50000000E-06  9.50000000E-06  9.50000000E-06  9.50000000E-06  9.50000000E-06  9.50000000E-06  9.50000000E-06
    9.50000000E-06  9.50000000E-06  9.50000000E-06  9.50000000E-06  9.50000000E-06  9.50000000E-06  9.50000000E-06  9.50000000E-06  9.50000000E-06  9.50000000E-06  9.50000000E-06  9.50000000E-06  9.50000000E-06  9.50000000E-06  9.50000000E-06  9.50000000E-06  9.50000000E-06  9.50000000E-06  9.50000000E-06  9.50000000E-06  9.50000000E-06  9.50000000E-06  9.50000000E-06  9.50000000E-06  9.50000000E-06  9.50000000E-06  9.50000000E-06  9.50000000E-06  9.50000000E-06  9.50000000E-06  9.50000000E-06  9.50000000E-06  9.50000000E-06  9.50000000E-06  9.50000000E-06  9.50000000E-06  9.50000000E-06  9.50000000E-06  9.50000000E-06  9.50000000E-06  9.50000000E-06  9.50000000E-06  9.50000000E-06  9.50000000E-06  9.50000000E-06  9.50000000E-06  9.50000000E-06  9.50000000E-06  9.50000000E-06  9.50000000E-06  9.50000000E-06  9.50000000E-06  9.50000000E-06  9.50000000E-06  9.50000000E-06  9.50000000E-06  9.50000000E-06  9.50000000E-06  9.50000000E-06  9.50000000E-06  9.50000000E-06  9.50000000E-06  9.50000000E-06  9.50000000E-06  9.50000000E-06  9.50000000E-06  9.50000000E-06  9.50000000E-06  9.50000000E-06  9.50000000E-06  9.50000000E-06  9.50000000E-06  9.50000000E-06
    9.50000000E-06  9.50000000E-06  9.50000000E-06  9.50000000E-06  9.50000000E-06  9.50000000E-06  9.50000000E-06  9.50000000E-06  9.50000000E-06  9.50000000E-06  9.50000000E-06  9.50000000E-06  9.50000000E-06  9.50000000E-06  9.50000000E-06  9.50000000E-06  9.50000000E-06  9.50000000E-06  9.50000000E-06  9.50000000E-06  9.50000000E-06  9.50000000E-06  9.50000000E-06  9.50000000E-06  9.50000000E-06  9.50000000E-06  9.50000000E-06  9.50000000E-06  9.50000000E-06  9.50000000E-06  9.50000000E-06  9.50000000E-06  9.50000000E-06  9.50000000E-06  9.50000000E-06  9.50000000E-06  9.50000000E-06  9.50000000E-06  9.50000000E-06  9.50000000E-06  9.50000000E-06  9.50000000E-06  9.50000000E-06  9.50000000E-06  9.50000000E-06  9.50000000E-06  9.50000000E-06  9.50000000E-06  9.50000000E-06  9.50000000E-06  9.50000000E-06  9.50000000E-06  9.50000000E-06  9.50000000E-06  9.50000000E-06  9.50000000E-06  9.50000000E-06  9.50000000E-06  9.50000000E-06  9.50000000E-06  9.50000000E-06  9.50000000E-06  9.50000000E-06  9.50000000E-06  9.50000000E-06  9.50000000E-06  9.50000000E-06  9.50000000E-06  9.50000000E-06  9.50000000E-06  9.50000000E-06  9.50000000E-06  9.50000000E-06
    9.50000000E-06  9.50000000E-06  9.50000000E-06  9.50000000E-06  9.50000000E-06  9.50000000E-06  9.50000000E-06  9.50000000E-06  9.50000000E-06  9.50000000E-06  9.50000000E-06  9.50000000E-06  9.50000000E-06  9.50000000E-06  9.50000000E-06  9.50000000E-06  9.50000000E-06  9.50000000E-06  9.50000000E-06  9.50000000E-06  9.50000000E-06  9.50000000E-06  9.50000000E-06  9.50000000E-06  9.50000000E-06  9.50000000E-06  9.50000000E-06  9.50000000E-06  9.50000000E-06  9.50000000E-06  9.50000000E-06  9.50000000E-06  9.50000000E-06  9.50000000E-06  9.50000000E-06  9.50000000E-06  9.50000000E-06  9.50000000E-06  9.50000000E-06  9.50000000E-06  9.50000000E-06  9.50000000E-06  9.50000000E-06  9.50000000E-06  9.50000000E-06  9.50000000E-06  9.50000000E-06  9.50000000E-06  9.50000000E-06  9.50000000E-06  9.50000000E-06  9.50000000E-06  9.50000000E-06  9.50000000E-06  9.50000000E-06  9.50000000E-06  9.50000000E-06  9.50000000E-06  9.50000000E-06  9.50000000E-06  9.50000000E-06  9.50000000E-06  9.50000000E-06  9.50000000E-06  9.50000000E-06  9.50000000E-06  9.50000000E-06  9.50000000E-06  9.50000000E-06  9.50000000E-06  9.50000000E-06  9.50000000E-06  9.50000000E-06
    9.50000000E-06  9.50000000E-06  9.50000000E-06  9.50000000E-06  9.50000000E-06  9.50000000E-06  9.50000000E-06  9.50000000E-06  9.50000000E-06  9.50000000E-06  9.50000000E-06  9.50000000E-06  9.50000000E-06  9.50000000E-06  9.50000000E-06  9.50000000E-06  9.50000000E-06  9.50000000E-06  9.50000000E-06  9.50000000E-06  9.50000000E-06  9.50000000E-06  9.50000000E-06  9.50000000E-06  9.50000000E-06  9.50000000E-06  9.50000000E-06  9.50000000E-06  9.50000000E-06  9.50000000E-06  9.50000000E-06  9.50000000E-06  9.50000000E-06  9.50000000E-06  9.50000000E-06  9.50000000E-06  9.50000000E-06  9.50000000E-06  9.50000000E-06  9.50000000E-06  9.50000000E-06  9.50000000E-06  9.50000000E-06  9.50000000E-06  9.50000000E-06  9.50000000E-06  9.50000000E-06  9.50000000E-06  9.50000000E-06  9.50000000E-06  9.50000000E-06  9.50000000E-06  9.50000000E-06  9.50000000E-06  9.50000000E-06  9.50000000E-06  9.50000000E-06  9.50000000E-06  9.50000000E-06  9.50000000E-06  9.50000000E-06  9.50000000E-06  9.50000000E-06  9.50000000E-06  9.50000000E-06  9.50000000E-06  9.50000000E-06  9.50000000E-06  9.50000000E-06  9.50000000E-06  9.50000000E-06  9.50000000E-06  9.50000000E-06
    9.50000000E-06  9.50000000E-06  9.50000000E-06  9.50000000E-06  9.50000000E-06  9.50000000E-06  9.50000000E-06  9.50000000E-06  9.50000000E-06  9.50000000E-06  9.50000000E-06  9.50000000E-06  9.50000000E-06  9.50000000E-06  9.50000000E-06  9.50000000E-06  9.50000000E-06  9.50000000E-06  9.50000000E-06  9.50000000E-06  9.50000000E-06  9.50000000E-06  9.50000000E-06  9.50000000E-06  9.50000000E-06  9.50000000E-06  9.50000000E-06  9.50000000E-06  9.50000000E-06  9.50000000E-06  9.50000000E-06  9.50000000E-06  9.50000000E-06  9.50000000E-06  9.50000000E-06  9.50000000E-06  9.50000000E-06  9.50000000E-06  9.50000000E-06  9.50000000E-06  9.50000000E-06  9.50000000E-06  9.50000000E-06  9.50000000E-06  9.50000000E-06  9.50000000E-06  9.50000000E-06  9.50000000E-06  9.50000000E-06  9.50000000E-06  9.50000000E-06  9.50000000E-06  9.50000000E-06  9.50000000E-06  9.50000000E-06  9.50000000E-06  9.50000000E-06  9.50000000E-06  9.50000000E-06  9.50000000E-06  9.50000000E-06  9.50000000E-06  9.50000000E-06  9.50000000E-06  9.50000000E-06  9.50000000E-06  9.50000000E-06  9.50000000E-06  9.50000000E-06  9.50000000E-06  9.50000000E-06  9.50000000E-06  9.50000000E-06
    9.50000000E-06  9.50000000E-06  9.50000000E-06  9.50000000E-06  9.50000000E-06  9.50000000E-06  9.50000000E-06  9.50000000E-06  9.50000000E-06  9.50000000E-06  9.50000000E-06  9.50000000E-06  9.50000000E-06  9.50000000E-06  9.50000000E-06  9.50000000E-06  9.50000000E-06  9.50000000E-06  9.50000000E-06  9.50000000E-06  9.50000000E-06  9.50000000E-06  9.50000000E-06  9.50000000E-06  9.50000000E-06  9.50000000E-06  9.50000000E-06  9.50000000E-06  9.50000000E-06  9.50000000E-06  9.50000000E-06  9.50000000E-06  9.50000000E-06  9.50000000E-06  9.50000000E-06  9.50000000E-06  9.50000000E-06  9.50000000E-06  9.50000000E-06  9.50000000E-06  9.50000000E-06  9.50000000E-06  9.50000000E-06  9.50000000E-06  9.50000000E-06  9.50000000E-06  9.50000000E-06  9.50000000E-06  9.50000000E-06  9.50000000E-06  9.50000000E-06  9.50000000E-06  9.50000000E-06  9.50000000E-06  9.50000000E-06  9.50000000E-06  9.50000000E-06  9.50000000E-06  9.50000000E-06  9.50000000E-06  9.50000000E-06  9.50000000E-06  9.50000000E-06  9.50000000E-06  9.50000000E-06  9.50000000E-06  9.50000000E-06  9.50000000E-06  9.50000000E-06  9.50000000E-06  9.50000000E-06  9.50000000E-06  9.50000000E-06
    9.50000000E-06  9.50000000E-06  9.50000000E-06  9.50000000E-06  9.50000000E-06  9.50000000E-06  9.50000000E-06  9.50000000E-06  9.50000000E-06  9.50000000E-06  9.50000000E-06  9.50000000E-06  9.50000000E-06  9.50000000E-06  9.50000000E-06  9.50000000E-06  9.50000000E-06  9.50000000E-06  9.50000000E-06  9.50000000E-06  9.50000000E-06  9.50000000E-06  9.50000000E-06  9.50000000E-06  9.50000000E-06  9.50000000E-06  9.50000000E-06  9.50000000E-06  9.50000000E-06  9.50000000E-06  9.50000000E-06  9.50000000E-06  9.50000000E-06  9.50000000E-06  9.50000000E-06  9.50000000E-06  9.50000000E-06  9.50000000E-06  9.50000000E-06  9.50000000E-06  9.50000000E-06  9.50000000E-06  9.50000000E-06  9.50000000E-06  9.50000000E-06  9.50000000E-06  9.50000000E-06  9.50000000E-06  9.50000000E-06  9.50000000E-06  9.50000000E-06  9.50000000E-06  9.50000000E-06  9.50000000E-06  9.50000000E-06  9.50000000E-06  9.50000000E-06  9.50000000E-06  9.50000000E-06  9.50000000E-06  9.50000000E-06  9.50000000E-06  9.50000000E-06  9.50000000E-06  9.50000000E-06  9.50000000E-06  9.50000000E-06  9.50000000E-06  9.50000000E-06  9.50000000E-06  9.50000000E-06  9.50000000E-06  9.50000000E-06
    9.50000000E-06  9.50000000E-06  9.50000000E-06  9.50000000E-06  9.50000000E-06  9.50000000E-06  9.50000000E-06  9.50000000E-06  9.50000000E-06  9.50000000E-06  9.50000000E-06  9.50000000E-06  9.50000000E-06  9.50000000E-06  9.50000000E-06  9.50000000E-06  9.50000000E-06  9.50000000E-06  9.50000000E-06  9.50000000E-06  9.50000000E-06  9.50000000E-06  9.50000000E-06  9.50000000E-06  9.50000000E-06  9.50000000E-06  9.50000000E-06  9.50000000E-06  9.50000000E-06  9.50000000E-06  9.50000000E-06  9.50000000E-06  9.50000000E-06  9.50000000E-06  9.50000000E-06  9.50000000E-06  9.50000000E-06  9.50000000E-06  9.50000000E-06  9.50000000E-06  9.50000000E-06  9.50000000E-06  9.50000000E-06  9.50000000E-06  9.50000000E-06  9.50000000E-06  9.50000000E-06  9.50000000E-06  9.50000000E-06  9.50000000E-06  9.50000000E-06  9.50000000E-06  9.50000000E-06  9.50000000E-06  9.50000000E-06  9.50000000E-06  9.50000000E-06  9.50000000E-06  9.50000000E-06  9.50000000E-06  9.50000000E-06  9.50000000E-06  9.50000000E-06  9.50000000E-06  9.50000000E-06  9.50000000E-06  9.50000000E-06  9.50000000E-06  9.50000000E-06  9.50000000E-06  9.50000000E-06  9.50000000E-06  9.50000000E-06
    9.50000000E-06  9.50000000E-06  9.50000000E-06  9.50000000E-06  9.50000000E-06  9.50000000E-06  9.50000000E-06  9.50000000E-06  9.50000000E-06  9.50000000E-06  9.50000000E-06  9.50000000E-06  9.50000000E-06  9.50000000E-06  9.50000000E-06  9.50000000E-06  9.50000000E-06  9.50000000E-06  9.50000000E-06  9.50000000E-06  9.50000000E-06  9.50000000E-06  9.50000000E-06  9.50000000E-06  9.50000000E-06  9.50000000E-06  9.50000000E-06  9.50000000E-06  9.50000000E-06  9.50000000E-06  9.50000000E-06  9.50000000E-06  9.50000000E-06  9.50000000E-06  9.50000000E-06  9.50000000E-06  9.50000000E-06  9.50000000E-06  9.50000000E-06  9.50000000E-06  9.50000000E-06  9.50000000E-06  9.50000000E-06  9.50000000E-06  9.50000000E-06  9.50000000E-06  9.50000000E-06  9.50000000E-06  9.50000000E-06  9.50000000E-06  9.50000000E-06  9.50000000E-06  9.50000000E-06  9.50000000E-06  9.50000000E-06  9.50000000E-06  9.50000000E-06  9.50000000E-06  9.50000000E-06  9.50000000E-06  9.50000000E-06  9.50000000E-06  9.50000000E-06  9.50000000E-06  9.50000000E-06  9.50000000E-06  9.50000000E-06  9.50000000E-06  9.50000000E-06  9.50000000E-06  9.50000000E-06  9.50000000E-06  9.50000000E-06
    9.50000000E-06  9.50000000E-06  9.50000000E-06  9.50000000E-06  9.50000000E-06  9.50000000E-06  9.50000000E-06  9.50000000E-06  9.50000000E-06  9.50000000E-06  9.50000000E-06  9.50000000E-06  9.50000000E-06  9.50000000E-06  9.50000000E-06  9.50000000E-06  9.50000000E-06  9.50000000E-06  9.50000000E-06  9.50000000E-06  9.50000000E-06  9.50000000E-06  9.50000000E-06  9.50000000E-06  9.50000000E-06  9.50000000E-06  9.50000000E-06  9.50000000E-06  9.50000000E-06  9.50000000E-06  9.50000000E-06  9.50000000E-06  9.50000000E-06  9.50000000E-06  9.50000000E-06  9.50000000E-06  9.50000000E-06  9.50000000E-06  9.50000000E-06  9.50000000E-06  9.50000000E-06  9.50000000E-06  9.50000000E-06  9.50000000E-06  9.50000000E-06  9.50000000E-06  9.50000000E-06  9.50000000E-06  9.50000000E-06  9.50000000E-06  9.50000000E-06  9.50000000E-06  9.50000000E-06  9.50000000E-06  9.50000000E-06  9.50000000E-06  9.50000000E-06  9.50000000E-06  9.50000000E-06  9.50000000E-06  9.50000000E-06  9.50000000E-06  9.50000000E-06  9.50000000E-06  9.50000000E-06  9.50000000E-06  9.50000000E-06  9.50000000E-06  9.50000000E-06  9.50000000E-06  9.50000000E-06  9.50000000E-06  9.50000000E-06
    9.50000000E-06  9.50000000E-06  9.50000000E-06  9.50000000E-06  9.50000000E-06  9.50000000E-06  9.50000000E-06  9.50000000E-06  9.50000000E-06  9.50000000E-06  9.50000000E-06  9.50000000E-06  9.50000000E-06  9.50000000E-06  9.50000000E-06  9.50000000E-06  9.50000000E-06  9.50000000E-06  9.50000000E-06  9.50000000E-06  9.50000000E-06  9.50000000E-06  9.50000000E-06  9.50000000E-06  9.50000000E-06  9.50000000E-06  9.50000000E-06  9.50000000E-06  9.50000000E-06  9.50000000E-06  9.50000000E-06  9.50000000E-06  9.50000000E-06  9.50000000E-06  9.50000000E-06  9.50000000E-06  9.50000000E-06  9.50000000E-06  9.50000000E-06  9.50000000E-06  9.50000000E-06  9.50000000E-06  9.50000000E-06  9.50000000E-06  9.50000000E-06  9.50000000E-06  9.50000000E-06  9.50000000E-06  9.50000000E-06  9.50000000E-06  9.50000000E-06  9.50000000E-06  9.50000000E-06  9.50000000E-06  9.50000000E-06  9.50000000E-06  9.50000000E-06  9.50000000E-06  9.50000000E-06  9.50000000E-06  9.50000000E-06  9.50000000E-06  9.50000000E-06  9.50000000E-06  9.50000000E-06  9.50000000E-06  9.50000000E-06  9.50000000E-06  9.50000000E-06  9.50000000E-06  9.50000000E-06  9.50000000E-06  9.50000000E-06
    9.50000000E-06  9.50000000E-06  9.50000000E-06  9.50000000E-06  9.50000000E-06  9.50000000E-06  9.50000000E-06  9.50000000E-06  9.50000000E-06  9.50000000E-06  9.50000000E-06  9.50000000E-06  9.50000000E-06  9.50000000E-06  9.50000000E-06  9.50000000E-06  9.50000000E-06  9.50000000E-06  9.50000000E-06  9.50000000E-06  9.50000000E-06  9.50000000E-06  9.50000000E-06  9.50000000E-06  9.50000000E-06  9.50000000E-06  9.50000000E-06  9.50000000E-06  9.50000000E-06  9.50000000E-06  9.50000000E-06  9.50000000E-06  9.50000000E-06  9.50000000E-06  9.50000000E-06  9.50000000E-06  9.50000000E-06  9.50000000E-06  9.50000000E-06  9.50000000E-06  9.50000000E-06  9.50000000E-06  9.50000000E-06  9.50000000E-06  9.50000000E-06  9.50000000E-06  9.50000000E-06  9.50000000E-06  9.50000000E-06  9.50000000E-06  9.50000000E-06  9.50000000E-06  9.50000000E-06  9.50000000E-06  9.50000000E-06  9.50000000E-06  9.50000000E-06  9.50000000E-06  9.50000000E-06  9.50000000E-06  9.50000000E-06  9.50000000E-06  9.50000000E-06  9.50000000E-06  9.50000000E-06  9.50000000E-06  9.50000000E-06  9.50000000E-06  9.50000000E-06  9.50000000E-06  9.50000000E-06  9.50000000E-06  9.50000000E-06
    9.50000000E-06  9.50000000E-06  9.50000000E-06  9.50000000E-06  9.50000000E-06  9.50000000E-06  9.50000000E-06  9.50000000E-06  9.50000000E-06  9.50000000E-06  9.50000000E-06  9.50000000E-06  9.50000000E-06  9.50000000E-06  9.50000000E-06  9.50000000E-06  9.50000000E-06  9.50000000E-06  9.50000000E-06  9.50000000E-06  9.50000000E-06  9.50000000E-06  9.50000000E-06  9.50000000E-06  9.50000000E-06  9.50000000E-06  9.50000000E-06  9.50000000E-06  9.50000000E-06  9.50000000E-06  9.50000000E-06  9.50000000E-06  9.50000000E-06  9.50000000E-06  9.50000000E-06  9.50000000E-06  9.50000000E-06  9.50000000E-06  9.50000000E-06  9.50000000E-06  9.50000000E-06  9.50000000E-06  9.50000000E-06  9.50000000E-06  9.50000000E-06  9.50000000E-06  9.50000000E-06  9.50000000E-06  9.50000000E-06  9.50000000E-06  9.50000000E-06  9.50000000E-06  9.50000000E-06  9.50000000E-06  9.50000000E-06  9.50000000E-06  9.50000000E-06  9.50000000E-06  9.50000000E-06  9.50000000E-06  9.50000000E-06  9.50000000E-06  9.50000000E-06  9.50000000E-06  9.50000000E-06  9.50000000E-06  9.50000000E-06  9.50000000E-06  9.50000000E-06  9.50000000E-06  9.50000000E-06  9.50000000E-06  9.50000000E-06
    9.50000000E-06  9.50000000E-06  9.50000000E-06  9.50000000E-06  9.50000000E-06  9.50000000E-06  9.50000000E-06  9.50000000E-06  9.50000000E-06  9.50000000E-06  9.50000000E-06  9.50000000E-06  9.50000000E-06  9.50000000E-06  9.50000000E-06  9.50000000E-06  9.50000000E-06  9.50000000E-06  9.50000000E-06  9.50000000E-06  9.50000000E-06  9.50000000E-06  9.50000000E-06  9.50000000E-06  9.50000000E-06  9.50000000E-06  9.50000000E-06  9.50000000E-06  9.50000000E-06  9.50000000E-06  9.50000000E-06  9.50000000E-06  9.50000000E-06  9.50000000E-06  9.50000000E-06  9.50000000E-06  9.50000000E-06  9.50000000E-06  9.50000000E-06  9.50000000E-06  9.50000000E-06  9.50000000E-06  9.50000000E-06  9.50000000E-06  9.50000000E-06  9.50000000E-06  9.50000000E-06  9.50000000E-06  9.50000000E-06  9.50000000E-06  9.50000000E-06  9.50000000E-06  9.50000000E-06  9.50000000E-06  9.50000000E-06  9.50000000E-06  9.50000000E-06  9.50000000E-06  9.50000000E-06  9.50000000E-06  9.50000000E-06  9.50000000E-06  9.50000000E-06  9.50000000E-06  9.50000000E-06  9.50000000E-06  9.50000000E-06  9.50000000E-06  9.50000000E-06  9.50000000E-06  9.50000000E-06  9.50000000E-06  9.50000000E-06
    9.50000000E-06  9.50000000E-06  9.50000000E-06  9.50000000E-06  9.50000000E-06  9.50000000E-06  9.50000000E-06  9.50000000E-06  9.50000000E-06  9.50000000E-06  9.50000000E-06  9.50000000E-06  9.50000000E-06  9.50000000E-06  9.50000000E-06  9.50000000E-06  9.50000000E-06  9.50000000E-06  9.50000000E-06  9.50000000E-06  9.50000000E-06  9.50000000E-06  9.50000000E-06  9.50000000E-06  9.50000000E-06  9.50000000E-06  9.50000000E-06  9.50000000E-06  9.50000000E-06  9.50000000E-06  9.50000000E-06  9.50000000E-06  9.50000000E-06  9.50000000E-06  9.50000000E-06  9.50000000E-06  9.50000000E-06  9.50000000E-06  9.50000000E-06  9.50000000E-06  9.50000000E-06  9.50000000E-06  9.50000000E-06  9.50000000E-06  9.50000000E-06  9.50000000E-06  9.50000000E-06  9.50000000E-06  9.50000000E-06  9.50000000E-06  9.50000000E-06  9.50000000E-06  9.50000000E-06  9.50000000E-06  9.50000000E-06  9.50000000E-06  9.50000000E-06  9.50000000E-06  9.50000000E-06  9.50000000E-06  9.50000000E-06  9.50000000E-06  9.50000000E-06  9.50000000E-06  9.50000000E-06  9.50000000E-06  9.50000000E-06  9.50000000E-06  9.50000000E-06  9.50000000E-06  9.50000000E-06  9.50000000E-06  9.50000000E-06
    9.50000000E-06  9.50000000E-06  9.50000000E-06  9.50000000E-06  9.50000000E-06  9.50000000E-06  9.50000000E-06  9.50000000E-06  9.50000000E-06  9.50000000E-06  9.50000000E-06  9.50000000E-06  9.50000000E-06  9.50000000E-06  9.50000000E-06  9.50000000E-06  9.50000000E-06  9.50000000E-06  9.50000000E-06  9.50000000E-06  9.50000000E-06  9.50000000E-06  9.50000000E-06  9.50000000E-06  9.50000000E-06  9.50000000E-06  9.50000000E-06  9.50000000E-06  9.50000000E-06  9.50000000E-06  9.50000000E-06  9.50000000E-06  9.50000000E-06  9.50000000E-06  9.50000000E-06  9.50000000E-06  9.50000000E-06  9.50000000E-06  9.50000000E-06  9.50000000E-06  9.50000000E-06  9.50000000E-06  9.50000000E-06  9.50000000E-06  9.50000000E-06  9.50000000E-06  9.50000000E-06  9.50000000E-06  9.50000000E-06  9.50000000E-06  9.50000000E-06  9.50000000E-06  9.50000000E-06  9.50000000E-06  9.50000000E-06  9.50000000E-06  9.50000000E-06  9.50000000E-06  9.50000000E-06  9.50000000E-06  9.50000000E-06  9.50000000E-06  9.50000000E-06  9.50000000E-06  9.50000000E-06  9.50000000E-06  9.50000000E-06  9.50000000E-06  9.50000000E-06  9.50000000E-06  9.50000000E-06  9.50000000E-06  9.50000000E-06
    9.50000000E-06  9.50000000E-06  9.50000000E-06  9.50000000E-06  9.50000000E-06  9.50000000E-06  9.50000000E-06  9.50000000E-06  9.50000000E-06  9.50000000E-06  9.50000000E-06  9.50000000E-06  9.50000000E-06  9.50000000E-06  9.50000000E-06  9.50000000E-06  9.50000000E-06  9.50000000E-06  9.50000000E-06  9.50000000E-06  9.50000000E-06  9.50000000E-06  9.50000000E-06  9.50000000E-06  9.50000000E-06  9.50000000E-06  9.50000000E-06  9.50000000E-06  9.50000000E-06  9.50000000E-06  9.50000000E-06  9.50000000E-06  9.50000000E-06  9.50000000E-06  9.50000000E-06  9.50000000E-06  9.50000000E-06  9.50000000E-06  9.50000000E-06  9.50000000E-06  9.50000000E-06  9.50000000E-06  9.50000000E-06  9.50000000E-06  9.50000000E-06  9.50000000E-06  9.50000000E-06  9.50000000E-06  9.50000000E-06  9.50000000E-06  9.50000000E-06  9.50000000E-06  9.50000000E-06  9.50000000E-06  9.50000000E-06  9.50000000E-06  9.50000000E-06  9.50000000E-06  9.50000000E-06  9.50000000E-06  9.50000000E-06  9.50000000E-06  9.50000000E-06  9.50000000E-06  9.50000000E-06  9.50000000E-06  9.50000000E-06  9.50000000E-06  9.50000000E-06  9.50000000E-06  9.50000000E-06  9.50000000E-06  9.50000000E-06
    9.50000000E-06  9.50000000E-06  9.50000000E-06  9.50000000E-06  9.50000000E-06  9.50000000E-06  9.50000000E-06  9.50000000E-06  9.50000000E-06  9.50000000E-06  9.50000000E-06  9.50000000E-06  9.50000000E-06  9.50000000E-06  9.50000000E-06  9.50000000E-06  9.50000000E-06  9.50000000E-06  9.50000000E-06  9.50000000E-06  9.50000000E-06  9.50000000E-06  9.50000000E-06  9.50000000E-06  9.50000000E-06  9.50000000E-06  9.50000000E-06  9.50000000E-06  9.50000000E-06  9.50000000E-06  9.50000000E-06  9.50000000E-06  9.50000000E-06  9.50000000E-06  9.50000000E-06  9.50000000E-06  9.50000000E-06  9.50000000E-06  9.50000000E-06  9.50000000E-06  9.50000000E-06  9.50000000E-06  9.50000000E-06  9.50000000E-06  9.50000000E-06  9.50000000E-06  9.50000000E-06  9.50000000E-06  9.50000000E-06  9.50000000E-06  9.50000000E-06  9.50000000E-06  9.50000000E-06  9.50000000E-06  9.50000000E-06  9.50000000E-06  9.50000000E-06  9.50000000E-06  9.50000000E-06  9.50000000E-06  9.50000000E-06  9.50000000E-06  9.50000000E-06  9.50000000E-06  9.50000000E-06  9.50000000E-06  9.50000000E-06  9.50000000E-06  9.50000000E-06  9.50000000E-06  9.50000000E-06  9.50000000E-06  9.50000000E-06
    9.50000000E-06  9.50000000E-06  9.50000000E-06  9.50000000E-06  9.50000000E-06  9.50000000E-06  9.50000000E-06  9.50000000E-06  9.50000000E-06  9.50000000E-06  9.50000000E-06  9.50000000E-06  9.50000000E-06  9.50000000E-06  9.50000000E-06  9.50000000E-06  9.50000000E-06  9.50000000E-06  9.50000000E-06  9.50000000E-06  9.50000000E-06  9.50000000E-06  9.50000000E-06  9.50000000E-06  9.50000000E-06  9.50000000E-06  9.50000000E-06  9.50000000E-06  9.50000000E-06  9.50000000E-06  9.50000000E-06  9.50000000E-06  9.50000000E-06  9.50000000E-06  9.50000000E-06  9.50000000E-06  9.50000000E-06  9.50000000E-06  9.50000000E-06  9.50000000E-06  9.50000000E-06  9.50000000E-06  9.50000000E-06  9.50000000E-06  9.50000000E-06  9.50000000E-06  9.50000000E-06  9.50000000E-06  9.50000000E-06  9.50000000E-06  9.50000000E-06  9.50000000E-06  9.50000000E-06  9.50000000E-06  9.50000000E-06  9.50000000E-06  9.50000000E-06  9.50000000E-06  9.50000000E-06  9.50000000E-06  9.50000000E-06  9.50000000E-06  9.50000000E-06  9.50000000E-06  9.50000000E-06  9.50000000E-06  9.50000000E-06  9.50000000E-06  9.50000000E-06  9.50000000E-06  9.50000000E-06  9.50000000E-06  9.50000000E-06
    9.50000000E-06  9.50000000E-06  9.50000000E-06  9.50000000E-06  9.50000000E-06  9.50000000E-06  9.50000000E-06  9.50000000E-06  9.50000000E-06  9.50000000E-06  9.50000000E-06  9.50000000E-06  9.50000000E-06  9.50000000E-06  9.50000000E-06  9.50000000E-06  9.50000000E-06  9.50000000E-06  9.50000000E-06  9.50000000E-06  9.50000000E-06  9.50000000E-06  9.50000000E-06  9.50000000E-06  9.50000000E-06  9.50000000E-06  9.50000000E-06  9.50000000E-06  9.50000000E-06  9.50000000E-06  9.50000000E-06  9.50000000E-06  9.50000000E-06  9.50000000E-06  9.50000000E-06  9.50000000E-06  9.50000000E-06  9.50000000E-06  9.50000000E-06  9.50000000E-06  9.50000000E-06  9.50000000E-06  9.50000000E-06  9.50000000E-06  9.50000000E-06  9.50000000E-06  9.50000000E-06  9.50000000E-06  9.50000000E-06  9.50000000E-06  9.50000000E-06  9.50000000E-06  9.50000000E-06  9.50000000E-06  9.50000000E-06  9.50000000E-06  9.50000000E-06  9.50000000E-06  9.50000000E-06  9.50000000E-06  9.50000000E-06  9.50000000E-06  9.50000000E-06  9.50000000E-06  9.50000000E-06  9.50000000E-06  9.50000000E-06  9.50000000E-06  9.50000000E-06  9.50000000E-06  9.50000000E-06  9.50000000E-06  9.50000000E-06
    9.50000000E-06  9.50000000E-06  9.50000000E-06  9.50000000E-06  9.50000000E-06  9.50000000E-06  9.50000000E-06  9.50000000E-06  9.50000000E-06  9.50000000E-06  9.50000000E-06  9.50000000E-06  9.50000000E-06  9.50000000E-06  9.50000000E-06  9.50000000E-06  9.50000000E-06  9.50000000E-06  9.50000000E-06  9.50000000E-06  9.50000000E-06  9.50000000E-06  9.50000000E-06  9.50000000E-06  9.50000000E-06  9.50000000E-06  9.50000000E-06  9.50000000E-06  9.50000000E-06  9.50000000E-06  9.50000000E-06  9.50000000E-06  9.50000000E-06  9.50000000E-06  9.50000000E-06  9.50000000E-06  9.50000000E-06  9.50000000E-06  9.50000000E-06  9.50000000E-06  9.50000000E-06  9.50000000E-06  9.50000000E-06  9.50000000E-06  9.50000000E-06  9.50000000E-06  9.50000000E-06  9.50000000E-06  9.50000000E-06  9.50000000E-06  9.50000000E-06  9.50000000E-06  9.50000000E-06  9.50000000E-06  9.50000000E-06  9.50000000E-06  9.50000000E-06  9.50000000E-06  9.50000000E-06  9.50000000E-06  9.50000000E-06  9.50000000E-06  9.50000000E-06  9.50000000E-06  9.50000000E-06  9.50000000E-06  9.50000000E-06  9.50000000E-06  9.50000000E-06  9.50000000E-06  9.50000000E-06  9.50000000E-06  9.50000000E-06
    9.50000000E-06  9.50000000E-06  9.50000000E-06  9.50000000E-06  9.50000000E-06  9.50000000E-06  9.50000000E-06  9.50000000E-06  9.50000000E-06  9.50000000E-06  9.50000000E-06  9.50000000E-06  9.50000000E-06  9.50000000E-06  9.50000000E-06  9.50000000E-06  9.50000000E-06  9.50000000E-06  9.50000000E-06  9.50000000E-06  9.50000000E-06  9.50000000E-06  9.50000000E-06  9.50000000E-06  9.50000000E-06  9.50000000E-06  9.50000000E-06  9.50000000E-06  9.50000000E-06  9.50000000E-06  9.50000000E-06  9.50000000E-06  9.50000000E-06  9.50000000E-06  9.50000000E-06  9.50000000E-06  9.50000000E-06  9.50000000E-06  9.50000000E-06  9.50000000E-06  9.50000000E-06  9.50000000E-06  9.50000000E-06  9.50000000E-06  9.50000000E-06  9.50000000E-06  9.50000000E-06  9.50000000E-06  9.50000000E-06  9.50000000E-06  9.50000000E-06  9.50000000E-06  9.50000000E-06  9.50000000E-06  9.50000000E-06  9.50000000E-06  9.50000000E-06  9.50000000E-06  9.50000000E-06  9.50000000E-06  9.50000000E-06  9.50000000E-06  9.50000000E-06  9.50000000E-06  9.50000000E-06  9.50000000E-06  9.50000000E-06  9.50000000E-06  9.50000000E-06  9.50000000E-06  9.50000000E-06  9.50000000E-06  9.50000000E-06