# File generated by Flopy version 3.11.0.dev0 on 05/24/2026 at 17:48:51.
BEGIN options
  BUDGET  FILEOUT  gwt.cbc
  CONCENTRATION  FILEOUT  gwt.ucn
END options

BEGIN period  1
  SAVE  CONCENTRATION  ALL
  SAVE  BUDGET  ALL
END period  1

