# File generated by Flopy version 3.11.0.dev0 on 05/24/2026 at 17:48:51.
BEGIN options
  SCHEME  upstream
END options

