# File generated by Flopy version 3.11.0.dev0 on 05/24/2026 at 17:48:51.
BEGIN options
  SAVE_FLOWS
END options

BEGIN packages
  DIS6  gwt.dis  dis
  IC6  gwt.ic  ic
  ADV6  gwt.adv  adv
  MST6  gwt.mst  mst
  SSM6  gwt.ssm  ssm
  OC6  gwt.oc  oc
END packages

