# File generated by Flopy version 3.11.0.dev0 on 05/24/2026 at 17:48:51.
BEGIN options
  MEMORY_PRINT_OPTION  summary
END options

BEGIN timing
  TDIS6  sim.tdis
END timing

BEGIN models
  gwf6  gwf.nam  gwf
  gwt6  gwt.nam  gwt
END models

BEGIN exchanges
  GWF6-GWT6  gwfgwt.exg  gwf  gwt
END exchanges

BEGIN solutiongroup  1
  ims6  gwf.ims  gwf
  ims6  gwt.ims  gwt
END solutiongroup  1

