# File generated by Flopy version 3.11.0.dev0 on 05/24/2026 at 17:48:51.
BEGIN options
END options

BEGIN dimensions
  NPER  10
END dimensions

BEGIN perioddata
     365.25000000  12       1.00000000
     365.25000000  12       1.00000000
     365.25000000  12       1.00000000
     365.25000000  12       1.00000000
     365.25000000  12       1.00000000
     365.25000000  12       1.00000000
     365.25000000  12       1.00000000
     365.25000000  12       1.00000000
     365.25000000  12       1.00000000
     365.25000000  12       1.00000000
END perioddata

